<?xml version="1.0" encoding="UTF-8"?>
<!-- routes.rou.xml  -  generated by vehicles/route_generator.py
     Vehicles sorted by depart time (eliminates SUMO sort warnings).
     Each vehicle assigned a randomised vType variant from traffic.env. -->
<routes>

    <!-- Route edge definitions -->
    <route id="N_to_S" edges="N_in S_out"/>
    <route id="N_to_E" edges="N_in E_out"/>
    <route id="N_to_W" edges="N_in W_out"/>
    <route id="S_to_N" edges="S_in N_out"/>
    <route id="S_to_E" edges="S_in E_out"/>
    <route id="S_to_W" edges="S_in W_out"/>
    <route id="E_to_W" edges="E_in W_out"/>
    <route id="E_to_N" edges="E_in N_out"/>
    <route id="E_to_S" edges="E_in S_out"/>
    <route id="W_to_E" edges="W_in E_out"/>
    <route id="W_to_N" edges="W_in N_out"/>
    <route id="W_to_S" edges="W_in S_out"/>

    <!-- Vehicles (sorted by depart) -->
    <vehicle id="Car_68" type="car_3" route="W_to_S" depart="3.0" departLane="free" departSpeed="desired"/>
    <vehicle id="Car_28" type="car_3" route="S_to_N" depart="8.5" departLane="free" departSpeed="desired"/>
    <vehicle id="Car_69" type="car_4" route="W_to_S" depart="9.1" departLane="free" departSpeed="desired"/>
    <vehicle id="Car_1" type="car_0" route="N_to_S" depart="9.2" departLane="free" departSpeed="desired"/>
    <vehicle id="Motorcycle_12" type="motorcycle_3" route="W_to_E" depart="10.0" departLane="free" departSpeed="desired"/>
    <vehicle id="Car_2" type="car_1" route="N_to_E" depart="12.1" departLane="free" departSpeed="desired"/>
    <vehicle id="Car_51" type="car_2" route="E_to_S" depart="13.3" departLane="free" departSpeed="desired"/>
    <vehicle id="Car_70" type="car_5" route="W_to_S" depart="15.2" departLane="free" departSpeed="desired"/>
    <vehicle id="Truck_8" type="truck_7" route="E_to_W" depart="17.0" departLane="free" departSpeed="desired"/>
    <vehicle id="Car_29" type="car_4" route="S_to_N" depart="21.4" departLane="free" departSpeed="desired"/>
    <vehicle id="Car_3" type="car_2" route="N_to_S" depart="24.1" departLane="free" departSpeed="desired"/>
    <vehicle id="Car_71" type="car_6" route="W_to_N" depart="28.8" departLane="free" departSpeed="desired"/>
    <vehicle id="Car_52" type="car_3" route="E_to_S" depart="29.4" departLane="free" departSpeed="desired"/>
    <vehicle id="Ambulance_1" type="ambulance" route="N_to_S" depart="30.0" departLane="free" departSpeed="0"/>
    <vehicle id="Truck_10" type="truck_1" route="W_to_E" depart="33.7" departLane="free" departSpeed="desired"/>
    <vehicle id="Car_30" type="car_5" route="S_to_N" depart="35.0" departLane="free" departSpeed="desired"/>
    <vehicle id="Car_31" type="car_6" route="S_to_E" depart="35.0" departLane="free" departSpeed="desired"/>
    <vehicle id="Car_32" type="car_7" route="S_to_N" depart="35.1" departLane="free" departSpeed="desired"/>
    <vehicle id="Motorcycle_1" type="motorcycle_0" route="N_to_W" depart="44.1" departLane="free" departSpeed="desired"/>
    <vehicle id="Car_4" type="car_3" route="N_to_E" depart="49.1" departLane="free" departSpeed="desired"/>
    <vehicle id="Motorcycle_2" type="motorcycle_1" route="N_to_E" depart="51.3" departLane="free" departSpeed="desired"/>
    <vehicle id="Car_5" type="car_4" route="N_to_W" depart="51.5" departLane="free" departSpeed="desired"/>
    <vehicle id="Car_33" type="car_0" route="S_to_W" depart="54.1" departLane="free" departSpeed="desired"/>
    <vehicle id="Truck_2" type="truck_1" route="S_to_W" depart="57.4" departLane="free" departSpeed="desired"/>
    <vehicle id="Car_72" type="car_7" route="W_to_E" depart="58.8" departLane="free" departSpeed="desired"/>
    <vehicle id="Car_6" type="car_5" route="N_to_E" depart="61.0" departLane="free" departSpeed="desired"/>
    <vehicle id="Car_53" type="car_4" route="E_to_S" depart="61.2" departLane="free" departSpeed="desired"/>
    <vehicle id="Truck_9" type="truck_0" route="E_to_N" depart="61.3" departLane="free" departSpeed="desired"/>
    <vehicle id="Bus_1" type="bus_0" route="N_to_W" depart="63.2" departLane="free" departSpeed="desired"/>
    <vehicle id="Car_73" type="car_0" route="W_to_E" depart="69.2" departLane="free" departSpeed="desired"/>
    <vehicle id="Truck_11" type="truck_2" route="W_to_E" depart="69.7" departLane="free" departSpeed="desired"/>
    <vehicle id="Car_54" type="car_5" route="E_to_W" depart="71.2" departLane="free" departSpeed="desired"/>
    <vehicle id="Car_74" type="car_1" route="W_to_S" depart="74.8" departLane="free" departSpeed="desired"/>
    <vehicle id="Car_34" type="car_1" route="S_to_N" depart="76.4" departLane="free" departSpeed="desired"/>
    <vehicle id="Car_35" type="car_2" route="S_to_N" depart="77.2" departLane="free" departSpeed="desired"/>
    <vehicle id="Motorcycle_4" type="motorcycle_3" route="S_to_E" depart="77.8" departLane="free" departSpeed="desired"/>
    <vehicle id="Car_7" type="car_6" route="N_to_E" depart="78.1" departLane="free" departSpeed="desired"/>
    <vehicle id="Car_55" type="car_6" route="E_to_W" depart="80.5" departLane="free" departSpeed="desired"/>
    <vehicle id="Car_75" type="car_2" route="W_to_E" depart="81.7" departLane="free" departSpeed="desired"/>
    <vehicle id="Car_56" type="car_7" route="E_to_W" depart="82.2" departLane="free" departSpeed="desired"/>
    <vehicle id="Car_57" type="car_0" route="E_to_W" depart="83.1" departLane="free" departSpeed="desired"/>
    <vehicle id="Car_76" type="car_3" route="W_to_S" depart="83.2" departLane="free" departSpeed="desired"/>
    <vehicle id="Car_77" type="car_4" route="W_to_S" depart="85.7" departLane="free" departSpeed="desired"/>
    <vehicle id="Car_58" type="car_1" route="E_to_S" depart="87.1" departLane="free" departSpeed="desired"/>
    <vehicle id="Ambulance_2" type="ambulance" route="S_to_N" depart="90.0" departLane="free" departSpeed="0"/>
    <vehicle id="Car_36" type="car_3" route="S_to_E" depart="90.9" departLane="free" departSpeed="desired"/>
    <vehicle id="Car_78" type="car_5" route="W_to_N" depart="92.6" departLane="free" departSpeed="desired"/>
    <vehicle id="Car_8" type="car_7" route="N_to_E" depart="92.9" departLane="free" departSpeed="desired"/>
    <vehicle id="Bus_2" type="bus_1" route="E_to_S" depart="96.5" departLane="free" departSpeed="desired"/>
    <vehicle id="Car_9" type="car_0" route="N_to_E" depart="96.6" departLane="free" departSpeed="desired"/>
    <vehicle id="Car_37" type="car_4" route="S_to_N" depart="96.7" departLane="free" departSpeed="desired"/>
    <vehicle id="Car_38" type="car_5" route="S_to_E" depart="99.5" departLane="free" departSpeed="desired"/>
    <vehicle id="Car_39" type="car_6" route="S_to_E" depart="104.4" departLane="free" departSpeed="desired"/>
    <vehicle id="Car_40" type="car_7" route="S_to_W" depart="111.4" departLane="free" departSpeed="desired"/>
    <vehicle id="Car_79" type="car_6" route="W_to_E" depart="112.3" departLane="free" departSpeed="desired"/>
    <vehicle id="Car_41" type="car_0" route="S_to_W" depart="113.4" departLane="free" departSpeed="desired"/>
    <vehicle id="Car_10" type="car_1" route="N_to_S" depart="125.0" departLane="free" departSpeed="desired"/>
    <vehicle id="Car_11" type="car_2" route="N_to_S" depart="125.9" departLane="free" departSpeed="desired"/>
    <vehicle id="Car_12" type="car_3" route="N_to_S" depart="142.8" departLane="free" departSpeed="desired"/>
    <vehicle id="Car_59" type="car_2" route="E_to_N" depart="146.0" departLane="free" departSpeed="desired"/>
    <vehicle id="Car_80" type="car_7" route="W_to_E" depart="146.1" departLane="free" departSpeed="desired"/>
    <vehicle id="Car_81" type="car_0" route="W_to_E" depart="148.7" departLane="free" departSpeed="desired"/>
    <vehicle id="Car_60" type="car_3" route="E_to_S" depart="155.0" departLane="free" departSpeed="desired"/>
    <vehicle id="Motorcycle_3" type="motorcycle_2" route="N_to_S" depart="157.6" departLane="free" departSpeed="desired"/>
    <vehicle id="Car_42" type="car_1" route="S_to_E" depart="161.4" departLane="free" departSpeed="desired"/>
    <vehicle id="Car_13" type="car_4" route="N_to_E" depart="164.5" departLane="free" departSpeed="desired"/>
    <vehicle id="Motorcycle_8" type="motorcycle_7" route="E_to_W" depart="164.7" departLane="free" departSpeed="desired"/>
    <vehicle id="Car_61" type="car_4" route="E_to_W" depart="166.0" departLane="free" departSpeed="desired"/>
    <vehicle id="Motorcycle_5" type="motorcycle_4" route="S_to_E" depart="166.6" departLane="free" departSpeed="desired"/>
    <vehicle id="Motorcycle_6" type="motorcycle_5" route="S_to_N" depart="167.7" departLane="free" departSpeed="desired"/>
    <vehicle id="Car_14" type="car_5" route="N_to_E" depart="168.8" departLane="free" departSpeed="desired"/>
    <vehicle id="Car_62" type="car_5" route="E_to_W" depart="169.7" departLane="free" departSpeed="desired"/>
    <vehicle id="Car_43" type="car_2" route="S_to_W" depart="171.4" departLane="free" departSpeed="desired"/>
    <vehicle id="Truck_3" type="truck_2" route="S_to_E" depart="173.8" departLane="free" departSpeed="desired"/>
    <vehicle id="Truck_4" type="truck_3" route="S_to_W" depart="174.4" departLane="free" departSpeed="desired"/>
    <vehicle id="Car_44" type="car_3" route="S_to_W" depart="176.8" departLane="free" departSpeed="desired"/>
    <vehicle id="Car_82" type="car_1" route="W_to_E" depart="184.4" departLane="free" departSpeed="desired"/>
    <vehicle id="Car_15" type="car_6" route="N_to_E" depart="184.7" departLane="free" departSpeed="desired"/>
    <vehicle id="Motorcycle_9" type="motorcycle_0" route="E_to_N" depart="186.0" departLane="free" departSpeed="desired"/>
    <vehicle id="Car_63" type="car_6" route="E_to_N" depart="190.0" departLane="free" departSpeed="desired"/>
    <vehicle id="Motorcycle_7" type="motorcycle_6" route="S_to_W" depart="194.5" departLane="free" departSpeed="desired"/>
    <vehicle id="Car_64" type="car_7" route="E_to_S" depart="195.0" departLane="free" departSpeed="desired"/>
    <vehicle id="Motorcycle_13" type="motorcycle_4" route="W_to_S" depart="196.1" departLane="free" departSpeed="desired"/>
    <vehicle id="Truck_5" type="truck_4" route="S_to_N" depart="196.9" departLane="free" departSpeed="desired"/>
    <vehicle id="Car_83" type="car_2" route="W_to_E" depart="197.7" departLane="free" departSpeed="desired"/>
    <vehicle id="Truck_6" type="truck_5" route="S_to_N" depart="199.1" departLane="free" departSpeed="desired"/>
    <vehicle id="Car_16" type="car_7" route="N_to_W" depart="202.5" departLane="free" departSpeed="desired"/>
    <vehicle id="Car_84" type="car_3" route="W_to_E" depart="206.2" departLane="free" departSpeed="desired"/>
    <vehicle id="Car_85" type="car_4" route="W_to_N" depart="210.9" departLane="free" departSpeed="desired"/>
    <vehicle id="Car_17" type="car_0" route="N_to_S" depart="213.5" departLane="free" departSpeed="desired"/>
    <vehicle id="Car_18" type="car_1" route="N_to_S" depart="215.8" departLane="free" departSpeed="desired"/>
    <vehicle id="Car_19" type="car_2" route="N_to_W" depart="216.6" departLane="free" departSpeed="desired"/>
    <vehicle id="Car_20" type="car_3" route="N_to_W" depart="217.5" departLane="free" departSpeed="desired"/>
    <vehicle id="Car_65" type="car_0" route="E_to_N" depart="218.0" departLane="free" departSpeed="desired"/>
    <vehicle id="Car_86" type="car_5" route="W_to_S" depart="220.6" departLane="free" departSpeed="desired"/>
    <vehicle id="Motorcycle_10" type="motorcycle_1" route="E_to_S" depart="221.5" departLane="free" departSpeed="desired"/>
    <vehicle id="Bus_3" type="bus_2" route="E_to_W" depart="222.1" departLane="free" departSpeed="desired"/>
    <vehicle id="Car_45" type="car_4" route="S_to_N" depart="223.7" departLane="free" departSpeed="desired"/>
    <vehicle id="Car_21" type="car_4" route="N_to_E" depart="226.6" departLane="free" departSpeed="desired"/>
    <vehicle id="Car_46" type="car_5" route="S_to_W" depart="229.5" departLane="free" departSpeed="desired"/>
    <vehicle id="Car_22" type="car_5" route="N_to_E" depart="230.8" departLane="free" departSpeed="desired"/>
    <vehicle id="Truck_1" type="truck_0" route="N_to_W" depart="233.6" departLane="free" departSpeed="desired"/>
    <vehicle id="Car_87" type="car_6" route="W_to_N" depart="233.8" departLane="free" departSpeed="desired"/>
    <vehicle id="Car_23" type="car_6" route="N_to_E" depart="243.0" departLane="free" departSpeed="desired"/>
    <vehicle id="Car_66" type="car_1" route="E_to_W" depart="243.3" departLane="free" departSpeed="desired"/>
    <vehicle id="Car_47" type="car_6" route="S_to_W" depart="244.3" departLane="free" departSpeed="desired"/>
    <vehicle id="Car_24" type="car_7" route="N_to_S" depart="244.7" departLane="free" departSpeed="desired"/>
    <vehicle id="Truck_7" type="truck_6" route="S_to_N" depart="245.3" departLane="free" departSpeed="desired"/>
    <vehicle id="Car_25" type="car_0" route="N_to_S" depart="246.3" departLane="free" departSpeed="desired"/>
    <vehicle id="Motorcycle_11" type="motorcycle_2" route="E_to_N" depart="248.2" departLane="free" departSpeed="desired"/>
    <vehicle id="Car_48" type="car_7" route="S_to_W" depart="250.2" departLane="free" departSpeed="desired"/>
    <vehicle id="Car_88" type="car_7" route="W_to_S" depart="250.3" departLane="free" departSpeed="desired"/>
    <vehicle id="Car_89" type="car_0" route="W_to_N" depart="260.4" departLane="free" departSpeed="desired"/>
    <vehicle id="Car_49" type="car_0" route="S_to_E" depart="262.0" departLane="free" departSpeed="desired"/>
    <vehicle id="Car_90" type="car_1" route="W_to_S" depart="281.9" departLane="free" departSpeed="desired"/>
    <vehicle id="Car_91" type="car_2" route="W_to_E" depart="284.8" departLane="free" departSpeed="desired"/>
    <vehicle id="Car_26" type="car_1" route="N_to_E" depart="287.3" departLane="free" departSpeed="desired"/>
    <vehicle id="Car_27" type="car_2" route="N_to_W" depart="294.6" departLane="free" departSpeed="desired"/>
    <vehicle id="Car_67" type="car_2" route="E_to_W" depart="295.0" departLane="free" departSpeed="desired"/>
    <vehicle id="Car_92" type="car_3" route="W_to_N" depart="296.0" departLane="free" departSpeed="desired"/>
    <vehicle id="Car_50" type="car_1" route="S_to_N" depart="299.3" departLane="free" departSpeed="desired"/>

</routes>
