<?xml version="1.0" encoding="UTF-8"?>
<!-- vehicle_types.add.xml  -  8 profiles per class
     Generated by vehicles/vehicle_types.py
     Randomised from ranges in traffic.env -->
<additional>

    <!-- CARS: 8 driver profiles -->
    <vType id="car_0"
           accel="2.78" decel="5.03" sigma="0.52"
           tau="0.63" minGap="2.11"
           maxSpeed="13.89" speedFactor="1.033"
           length="4.5" width="1.8" height="1.5"
           guiShape="passenger" color="0.23,0.5,0.67"
           personCapacity="4" emissionClass="HBEFA3/PC_G_EU4"
           lcStrategic="1.0" lcCooperative="0.83"
           lcSpeedGain="0.16" lcKeepRight="0.9"
           lcImpatience="0.31"
           jmIgnoreFoeProb="0.0" jmSigmaMinorWait="0.3"/>
    <vType id="car_1"
           accel="2.81" decel="4.28" sigma="0.31"
           tau="1.31" minGap="3.87"
           maxSpeed="13.89" speedFactor="1.217"
           length="4.5" width="1.8" height="1.5"
           guiShape="passenger" color="0.25,0.58,0.73"
           personCapacity="4" emissionClass="HBEFA3/PC_G_EU4"
           lcStrategic="1.0" lcCooperative="0.86"
           lcSpeedGain="0.11" lcKeepRight="0.92"
           lcImpatience="0.19"
           jmIgnoreFoeProb="0.006" jmSigmaMinorWait="0.25"/>
    <vType id="car_2"
           accel="2.72" decel="4.99" sigma="0.47"
           tau="1.77" minGap="2.45"
           maxSpeed="13.89" speedFactor="0.786"
           length="4.5" width="1.8" height="1.5"
           guiShape="passenger" color="0.32,0.54,0.67"
           personCapacity="4" emissionClass="HBEFA3/PC_G_EU4"
           lcStrategic="0.91" lcCooperative="0.82"
           lcSpeedGain="0.14" lcKeepRight="0.9"
           lcImpatience="0.33"
           jmIgnoreFoeProb="0.006" jmSigmaMinorWait="0.45"/>
    <vType id="car_3"
           accel="3.05" decel="4.7" sigma="0.52"
           tau="1.04" minGap="2.42"
           maxSpeed="13.89" speedFactor="1.024"
           length="4.5" width="1.8" height="1.5"
           guiShape="passenger" color="0.32,0.46,0.81"
           personCapacity="4" emissionClass="HBEFA3/PC_G_EU4"
           lcStrategic="1.0" lcCooperative="0.88"
           lcSpeedGain="0.14" lcKeepRight="1.0"
           lcImpatience="0.29"
           jmIgnoreFoeProb="0.0" jmSigmaMinorWait="0.35"/>
    <vType id="car_4"
           accel="2.36" decel="4.11" sigma="0.62"
           tau="1.53" minGap="1.96"
           maxSpeed="13.89" speedFactor="1.102"
           length="4.5" width="1.8" height="1.5"
           guiShape="passenger" color="0.38,0.57,0.72"
           personCapacity="4" emissionClass="HBEFA3/PC_G_EU4"
           lcStrategic="1.0" lcCooperative="0.72"
           lcSpeedGain="0.06" lcKeepRight="0.94"
           lcImpatience="0.24"
           jmIgnoreFoeProb="0.0" jmSigmaMinorWait="0.47"/>
    <vType id="car_5"
           accel="2.31" decel="5.17" sigma="0.48"
           tau="0.92" minGap="3.13"
           maxSpeed="13.89" speedFactor="1.097"
           length="4.5" width="1.8" height="1.5"
           guiShape="passenger" color="0.31,0.44,0.67"
           personCapacity="4" emissionClass="HBEFA3/PC_G_EU4"
           lcStrategic="0.91" lcCooperative="0.96"
           lcSpeedGain="0.14" lcKeepRight="0.84"
           lcImpatience="0.2"
           jmIgnoreFoeProb="0.009" jmSigmaMinorWait="0.44"/>
    <vType id="car_6"
           accel="2.83" decel="4.75" sigma="0.7"
           tau="1.23" minGap="4.4"
           maxSpeed="13.89" speedFactor="1.012"
           length="4.5" width="1.8" height="1.5"
           guiShape="passenger" color="0.31,0.47,0.79"
           personCapacity="4" emissionClass="HBEFA3/PC_G_EU4"
           lcStrategic="0.98" lcCooperative="0.92"
           lcSpeedGain="0.13" lcKeepRight="0.44"
           lcImpatience="0.37"
           jmIgnoreFoeProb="0.006" jmSigmaMinorWait="0.35"/>
    <vType id="car_7"
           accel="2.74" decel="4.65" sigma="0.45"
           tau="0.81" minGap="4.21"
           maxSpeed="13.89" speedFactor="1.069"
           length="4.5" width="1.8" height="1.5"
           guiShape="passenger" color="0.25,0.55,0.77"
           personCapacity="4" emissionClass="HBEFA3/PC_G_EU4"
           lcStrategic="0.91" lcCooperative="0.83"
           lcSpeedGain="0.04" lcKeepRight="0.93"
           lcImpatience="0.3"
           jmIgnoreFoeProb="0.023" jmSigmaMinorWait="0.43"/>

    <!-- TRUCKS: 8 driver profiles -->
    <vType id="truck_0"
           accel="1.41" decel="3.06" sigma="0.36"
           tau="1.96" minGap="3.02"
           maxSpeed="9.72" speedFactor="0.988"
           length="12.0" width="2.5" height="3.5"
           guiShape="truck" color="0.32,0.32,0.32"
           personCapacity="2" emissionClass="HBEFA3/HDV_D_EU4"
           lcStrategic="1.0" lcCooperative="0.91"
           lcSpeedGain="0.1" lcKeepRight="0.72"
           lcImpatience="0.18"
           jmIgnoreFoeProb="0.002" jmSigmaMinorWait="0.38"/>
    <vType id="truck_1"
           accel="1.11" decel="4.02" sigma="0.23"
           tau="1.1" minGap="4.02"
           maxSpeed="9.72" speedFactor="0.89"
           length="12.0" width="2.5" height="3.5"
           guiShape="truck" color="0.35,0.35,0.35"
           personCapacity="2" emissionClass="HBEFA3/HDV_D_EU4"
           lcStrategic="0.9" lcCooperative="0.63"
           lcSpeedGain="0.12" lcKeepRight="0.88"
           lcImpatience="0.35"
           jmIgnoreFoeProb="0.0" jmSigmaMinorWait="0.51"/>
    <vType id="truck_2"
           accel="1.39" decel="3.88" sigma="0.17"
           tau="1.11" minGap="2.01"
           maxSpeed="9.72" speedFactor="0.841"
           length="12.0" width="2.5" height="3.5"
           guiShape="truck" color="0.23,0.23,0.23"
           personCapacity="2" emissionClass="HBEFA3/HDV_D_EU4"
           lcStrategic="0.92" lcCooperative="0.82"
           lcSpeedGain="0.17" lcKeepRight="0.82"
           lcImpatience="0.35"
           jmIgnoreFoeProb="0.012" jmSigmaMinorWait="0.35"/>
    <vType id="truck_3"
           accel="1.17" decel="3.42" sigma="0.24"
           tau="1.9" minGap="5.17"
           maxSpeed="9.72" speedFactor="0.92"
           length="12.0" width="2.5" height="3.5"
           guiShape="truck" color="0.31,0.31,0.31"
           personCapacity="2" emissionClass="HBEFA3/HDV_D_EU4"
           lcStrategic="1.0" lcCooperative="0.77"
           lcSpeedGain="0.03" lcKeepRight="0.87"
           lcImpatience="0.3"
           jmIgnoreFoeProb="0.0" jmSigmaMinorWait="0.45"/>
    <vType id="truck_4"
           accel="1.09" decel="3.24" sigma="0.36"
           tau="1.15" minGap="2.52"
           maxSpeed="9.72" speedFactor="0.781"
           length="12.0" width="2.5" height="3.5"
           guiShape="truck" color="0.4,0.4,0.4"
           personCapacity="2" emissionClass="HBEFA3/HDV_D_EU4"
           lcStrategic="1.0" lcCooperative="0.52"
           lcSpeedGain="0.13" lcKeepRight="0.75"
           lcImpatience="0.29"
           jmIgnoreFoeProb="0.019" jmSigmaMinorWait="0.4"/>
    <vType id="truck_5"
           accel="1.06" decel="3.4" sigma="0.39"
           tau="2.1" minGap="5.35"
           maxSpeed="9.72" speedFactor="0.969"
           length="12.0" width="2.5" height="3.5"
           guiShape="truck" color="0.23,0.23,0.23"
           personCapacity="2" emissionClass="HBEFA3/HDV_D_EU4"
           lcStrategic="1.0" lcCooperative="0.48"
           lcSpeedGain="0.2" lcKeepRight="0.77"
           lcImpatience="0.47"
           jmIgnoreFoeProb="0.0" jmSigmaMinorWait="0.43"/>
    <vType id="truck_6"
           accel="1.1" decel="3.99" sigma="0.39"
           tau="2.19" minGap="4.09"
           maxSpeed="9.72" speedFactor="0.886"
           length="12.0" width="2.5" height="3.5"
           guiShape="truck" color="0.34,0.34,0.34"
           personCapacity="2" emissionClass="HBEFA3/HDV_D_EU4"
           lcStrategic="0.91" lcCooperative="0.56"
           lcSpeedGain="0.08" lcKeepRight="0.99"
           lcImpatience="0.35"
           jmIgnoreFoeProb="0.0" jmSigmaMinorWait="0.4"/>
    <vType id="truck_7"
           accel="1.28" decel="3.22" sigma="0.15"
           tau="2.15" minGap="2.04"
           maxSpeed="9.72" speedFactor="0.963"
           length="12.0" width="2.5" height="3.5"
           guiShape="truck" color="0.24,0.24,0.24"
           personCapacity="2" emissionClass="HBEFA3/HDV_D_EU4"
           lcStrategic="1.0" lcCooperative="0.89"
           lcSpeedGain="0.08" lcKeepRight="0.63"
           lcImpatience="0.22"
           jmIgnoreFoeProb="0.0" jmSigmaMinorWait="0.46"/>

    <!-- BUSES: 8 driver profiles -->
    <vType id="bus_0"
           accel="1.44" decel="4.21" sigma="0.15"
           tau="1.73" minGap="2.21"
           maxSpeed="11.11" speedFactor="0.939"
           length="12.0" width="2.5" height="3.2"
           guiShape="bus" color="0.13,0.51,0.13"
           personCapacity="60" emissionClass="HBEFA3/HDV_D_EU4"
           lcStrategic="0.89" lcCooperative="0.7"
           lcSpeedGain="0.18" lcKeepRight="0.95"
           lcImpatience="0.35"
           jmIgnoreFoeProb="0.033" jmSigmaMinorWait="0.4"/>
    <vType id="bus_1"
           accel="1.73" decel="3.84" sigma="0.06"
           tau="0.93" minGap="2.43"
           maxSpeed="11.11" speedFactor="1.086"
           length="12.0" width="2.5" height="3.2"
           guiShape="bus" color="0.13,0.48,0.13"
           personCapacity="60" emissionClass="HBEFA3/HDV_D_EU4"
           lcStrategic="0.87" lcCooperative="0.92"
           lcSpeedGain="0.03" lcKeepRight="0.46"
           lcImpatience="0.11"
           jmIgnoreFoeProb="0.0" jmSigmaMinorWait="0.39"/>
    <vType id="bus_2"
           accel="1.27" decel="3.53" sigma="0.21"
           tau="1.03" minGap="3.82"
           maxSpeed="11.11" speedFactor="0.986"
           length="12.0" width="2.5" height="3.2"
           guiShape="bus" color="0.13,0.56,0.13"
           personCapacity="60" emissionClass="HBEFA3/HDV_D_EU4"
           lcStrategic="0.97" lcCooperative="0.77"
           lcSpeedGain="0.17" lcKeepRight="0.78"
           lcImpatience="0.23"
           jmIgnoreFoeProb="0.0" jmSigmaMinorWait="0.34"/>
    <vType id="bus_3"
           accel="1.37" decel="3.4" sigma="0.15"
           tau="1.7" minGap="4.46"
           maxSpeed="11.11" speedFactor="1.013"
           length="12.0" width="2.5" height="3.2"
           guiShape="bus" color="0.13,0.6,0.13"
           personCapacity="60" emissionClass="HBEFA3/HDV_D_EU4"
           lcStrategic="1.0" lcCooperative="0.72"
           lcSpeedGain="0.07" lcKeepRight="0.79"
           lcImpatience="0.17"
           jmIgnoreFoeProb="0.0" jmSigmaMinorWait="0.41"/>
    <vType id="bus_4"
           accel="1.55" decel="3.58" sigma="0.07"
           tau="1.67" minGap="4.66"
           maxSpeed="11.11" speedFactor="0.819"
           length="12.0" width="2.5" height="3.2"
           guiShape="bus" color="0.13,0.48,0.13"
           personCapacity="60" emissionClass="HBEFA3/HDV_D_EU4"
           lcStrategic="0.92" lcCooperative="0.69"
           lcSpeedGain="0.2" lcKeepRight="0.89"
           lcImpatience="0.11"
           jmIgnoreFoeProb="0.006" jmSigmaMinorWait="0.36"/>
    <vType id="bus_5"
           accel="1.57" decel="3.59" sigma="0.1"
           tau="0.81" minGap="4.23"
           maxSpeed="11.11" speedFactor="1.005"
           length="12.0" width="2.5" height="3.2"
           guiShape="bus" color="0.13,0.64,0.13"
           personCapacity="60" emissionClass="HBEFA3/HDV_D_EU4"
           lcStrategic="0.9" lcCooperative="1.0"
           lcSpeedGain="0.0" lcKeepRight="0.92"
           lcImpatience="0.11"
           jmIgnoreFoeProb="0.016" jmSigmaMinorWait="0.43"/>
    <vType id="bus_6"
           accel="1.36" decel="4.34" sigma="0.12"
           tau="1.72" minGap="4.31"
           maxSpeed="11.11" speedFactor="1.036"
           length="12.0" width="2.5" height="3.2"
           guiShape="bus" color="0.13,0.47,0.13"
           personCapacity="60" emissionClass="HBEFA3/HDV_D_EU4"
           lcStrategic="0.79" lcCooperative="1.0"
           lcSpeedGain="0.03" lcKeepRight="0.85"
           lcImpatience="0.48"
           jmIgnoreFoeProb="0.0" jmSigmaMinorWait="0.42"/>
    <vType id="bus_7"
           accel="1.72" decel="4.56" sigma="0.21"
           tau="0.95" minGap="1.58"
           maxSpeed="11.11" speedFactor="0.972"
           length="12.0" width="2.5" height="3.2"
           guiShape="bus" color="0.13,0.51,0.13"
           personCapacity="60" emissionClass="HBEFA3/HDV_D_EU4"
           lcStrategic="1.0" lcCooperative="0.7"
           lcSpeedGain="0.06" lcKeepRight="0.98"
           lcImpatience="0.29"
           jmIgnoreFoeProb="0.005" jmSigmaMinorWait="0.38"/>

    <!-- MOTORCYCLES: 8 driver profiles -->
    <vType id="motorcycle_0"
           accel="3.41" decel="6.41" sigma="0.89"
           tau="0.68" minGap="3.41"
           maxSpeed="15.28" speedFactor="1.073"
           length="2.2" width="0.8" height="1.2"
           guiShape="motorcycle" color="1.0,0.43,0.0"
           personCapacity="2" emissionClass="HBEFA3/PC_G_EU4"
           lcStrategic="1.0" lcCooperative="0.66"
           lcSpeedGain="0.06" lcKeepRight="0.65"
           lcImpatience="0.39"
           jmIgnoreFoeProb="0.0" jmSigmaMinorWait="0.56"/>
    <vType id="motorcycle_1"
           accel="3.74" decel="5.76" sigma="0.4"
           tau="1.43" minGap="2.35"
           maxSpeed="15.28" speedFactor="1.031"
           length="2.2" width="0.8" height="1.2"
           guiShape="motorcycle" color="1.0,0.37,0.0"
           personCapacity="2" emissionClass="HBEFA3/PC_G_EU4"
           lcStrategic="0.76" lcCooperative="0.73"
           lcSpeedGain="0.06" lcKeepRight="0.69"
           lcImpatience="0.48"
           jmIgnoreFoeProb="0.0" jmSigmaMinorWait="0.32"/>
    <vType id="motorcycle_2"
           accel="3.39" decel="6.79" sigma="0.55"
           tau="0.91" minGap="2.01"
           maxSpeed="15.28" speedFactor="1.057"
           length="2.2" width="0.8" height="1.2"
           guiShape="motorcycle" color="1.0,0.52,0.0"
           personCapacity="2" emissionClass="HBEFA3/PC_G_EU4"
           lcStrategic="1.0" lcCooperative="0.97"
           lcSpeedGain="0.06" lcKeepRight="0.74"
           lcImpatience="0.42"
           jmIgnoreFoeProb="0.008" jmSigmaMinorWait="0.4"/>
    <vType id="motorcycle_3"
           accel="3.1" decel="5.95" sigma="0.61"
           tau="1.08" minGap="2.64"
           maxSpeed="15.28" speedFactor="0.916"
           length="2.2" width="0.8" height="1.2"
           guiShape="motorcycle" color="1.0,0.58,0.0"
           personCapacity="2" emissionClass="HBEFA3/PC_G_EU4"
           lcStrategic="1.0" lcCooperative="0.83"
           lcSpeedGain="0.07" lcKeepRight="0.96"
           lcImpatience="0.36"
           jmIgnoreFoeProb="0.0" jmSigmaMinorWait="0.33"/>
    <vType id="motorcycle_4"
           accel="2.83" decel="5.54" sigma="0.81"
           tau="1.25" minGap="2.68"
           maxSpeed="15.28" speedFactor="1.096"
           length="2.2" width="0.8" height="1.2"
           guiShape="motorcycle" color="1.0,0.47,0.0"
           personCapacity="2" emissionClass="HBEFA3/PC_G_EU4"
           lcStrategic="1.0" lcCooperative="0.83"
           lcSpeedGain="0.08" lcKeepRight="0.62"
           lcImpatience="0.37"
           jmIgnoreFoeProb="0.005" jmSigmaMinorWait="0.55"/>
    <vType id="motorcycle_5"
           accel="3.88" decel="5.29" sigma="0.65"
           tau="0.74" minGap="2.64"
           maxSpeed="15.28" speedFactor="1.34"
           length="2.2" width="0.8" height="1.2"
           guiShape="motorcycle" color="1.0,0.46,0.0"
           personCapacity="2" emissionClass="HBEFA3/PC_G_EU4"
           lcStrategic="1.0" lcCooperative="0.97"
           lcSpeedGain="0.21" lcKeepRight="0.75"
           lcImpatience="0.3"
           jmIgnoreFoeProb="0.0" jmSigmaMinorWait="0.59"/>
    <vType id="motorcycle_6"
           accel="4.13" decel="6.7" sigma="0.63"
           tau="1.3" minGap="2.67"
           maxSpeed="15.28" speedFactor="1.289"
           length="2.2" width="0.8" height="1.2"
           guiShape="motorcycle" color="1.0,0.5,0.0"
           personCapacity="2" emissionClass="HBEFA3/PC_G_EU4"
           lcStrategic="0.98" lcCooperative="0.77"
           lcSpeedGain="0.04" lcKeepRight="0.89"
           lcImpatience="0.19"
           jmIgnoreFoeProb="0.013" jmSigmaMinorWait="0.3"/>
    <vType id="motorcycle_7"
           accel="3.53" decel="6.23" sigma="0.64"
           tau="0.76" minGap="1.62"
           maxSpeed="15.28" speedFactor="0.908"
           length="2.2" width="0.8" height="1.2"
           guiShape="motorcycle" color="1.0,0.42,0.0"
           personCapacity="2" emissionClass="HBEFA3/PC_G_EU4"
           lcStrategic="0.81" lcCooperative="0.91"
           lcSpeedGain="0.12" lcKeepRight="0.78"
           lcImpatience="0.39"
           jmIgnoreFoeProb="0.0" jmSigmaMinorWait="0.39"/>

    <!-- AMBULANCE: single type -->
    <vType id="ambulance"
           accel="3.5" decel="6.0" sigma="0.1"
           tau="0.6" minGap="1.5"
           maxSpeed="22.22" speedFactor="1.0"
           length="6.0" width="2.1" height="2.3"
           guiShape="delivery" color="1.0,0.0,0.0"
           personCapacity="2" emissionClass="HBEFA3/PC_G_EU4"
           lcStrategic="1.0" lcCooperative="1.0"
           lcSpeedGain="0.0" lcKeepRight="0.0"
           lcImpatience="1.0"
           jmIgnoreFoeProb="0.0" jmSigmaMinorWait="0.0"/>

    <!-- VIP CAR: gold, single type -->
    <vType id="vip_car"
           accel="2.6" decel="4.5" sigma="0.1"
           tau="0.8" minGap="2.0"
           maxSpeed="15.28" speedFactor="1.05"
           length="4.8" width="1.9" height="1.5"
           guiShape="passenger" color="1.0,0.84,0.0"
           personCapacity="4" emissionClass="HBEFA3/PC_G_EU4"
           lcStrategic="1.0" lcCooperative="0.5"
           lcSpeedGain="0.05" lcKeepRight="0.5"
           lcImpatience="0.8"
           jmIgnoreFoeProb="0.0" jmSigmaMinorWait="0.2"/>

</additional>
