<?xml version="1.0" encoding="UTF-8"?>
<edges>
    <edge id="N_in"  from="N" to="J"  numLanes="2" speed="13.89" width="3.2" spreadType="center"/>
    <edge id="N_out" from="J"  to="N" numLanes="2" speed="13.89" width="3.2" spreadType="center"/>
    <edge id="S_in"  from="S" to="J"  numLanes="2" speed="13.89" width="3.2" spreadType="center"/>
    <edge id="S_out" from="J"  to="S" numLanes="2" speed="13.89" width="3.2" spreadType="center"/>
    <edge id="E_in"  from="E" to="J"  numLanes="2" speed="13.89" width="3.2" spreadType="center"/>
    <edge id="E_out" from="J"  to="E" numLanes="2" speed="13.89" width="3.2" spreadType="center"/>
    <edge id="W_in"  from="W" to="J"  numLanes="2" speed="13.89" width="3.2" spreadType="center"/>
    <edge id="W_out" from="J"  to="W" numLanes="2" speed="13.89" width="3.2" spreadType="center"/>
</edges>
